cigre_lv_residential/opendss/Kersting6p1_VLN_Node.Txt

LINE-GROUND and LINE-LINE VOLTAGES BY BUS & NODE

Bus  Node    VLN (kV)   Angle      pu     Base kV    Node-Node   VLL (kV)  Angle      pu

R1 . 1      0.23094 /_    0.0         1     0.400        1-2        0.4 /_   30.0         1
   - 2      0.23094 /_ -120.0         1     0.400        2-3        0.4 /_  -90.0         1
   - 3      0.23094 /_  120.0         1     0.400        3-1        0.4 /_  150.0         1
   - 4    0.0033293 /_   43.7  0.014416     0.400
R10  1      0.23094 /_   10.0         1     0.400        1-2        0.4 /_   40.0         1
   - 2      0.23094 /_ -110.0         1     0.400        2-3        0.4 /_  -80.0         1
   - 3      0.23094 /_  130.0         1     0.400        3-1        0.4 /_  160.0         1
   - 4    0.0033293 /_ -136.3  0.014416     0.400
